<?xml version="1.0" encoding="utf-8"?>
<connections>
  <connection from="east_in" to="north_out" fromLane="0" toLane="0"/>
  <connection from="east_in" to="west_out" fromLane="1" toLane="1"/>
  <connection from="east_in" to="west_out" fromLane="2" toLane="2"/>
  <connection from="east_in" to="west_out" fromLane="3" toLane="3"/>
  <connection from="east_in" to="south_out" fromLane="4" toLane="0"/>
  <connection from="east_in" to="south_out" fromLane="5" toLane="1"/>
  <connection from="west_in" to="south_out" fromLane="0" toLane="0"/>
  <connection from="west_in" to="east_out" fromLane="0" toLane="1"/>
  <connection from="west_in" to="east_out" fromLane="1" toLane="2"/>
  <connection from="west_in" to="east_out" fromLane="2" toLane="3"/>
  <connection from="west_in" to="north_out" fromLane="3" toLane="0"/>
  <connection from="west_in" to="north_out" fromLane="4" toLane="1"/>
  <connection from="north_in" to="west_out" fromLane="0" toLane="0"/>
  <connection from="north_in" to="south_out" fromLane="0" toLane="0"/>
  <connection from="north_in" to="south_out" fromLane="1" toLane="1"/>
  <connection from="north_in" to="east_out" fromLane="2" toLane="3"/>
  <connection from="south_in" to="east_out" fromLane="0" toLane="0"/>
  <connection from="south_in" to="north_out" fromLane="0" toLane="0"/>
  <connection from="south_in" to="north_out" fromLane="1" toLane="1"/>
  <connection from="south_in" to="west_out" fromLane="2" toLane="3"/>
  <connection from="east_in_far" to="east_in" fromLane="0" toLane="0"/>
  <connection from="east_in_far" to="east_in" fromLane="1" toLane="1" allow="bus"/>
  <connection from="east_in_far" to="east_in" fromLane="2" toLane="2"/>
  <connection from="east_in_far" to="east_in" fromLane="3" toLane="3"/>
  <connection from="east_in_far" to="east_in" fromLane="4" toLane="4"/>
  <connection from="east_in_far" to="east_in" fromLane="5" toLane="5"/>
  <connection from="west_in_far" to="west_in" fromLane="0" toLane="0"/>
  <connection from="west_in_far" to="west_in" fromLane="1" toLane="1"/>
  <connection from="west_in_far" to="west_in" fromLane="2" toLane="2"/>
  <connection from="west_in_far" to="west_in" fromLane="3" toLane="3"/>
  <connection from="west_in_far" to="west_in" fromLane="4" toLane="4"/>
  <connection from="north_in_far" to="north_in" fromLane="0" toLane="0"/>
  <connection from="north_in_far" to="north_in" fromLane="1" toLane="1"/>
  <connection from="north_in_far" to="north_in" fromLane="2" toLane="2"/>
  <connection from="south_in_far" to="south_in" fromLane="0" toLane="0"/>
  <connection from="south_in_far" to="south_in" fromLane="1" toLane="1"/>
  <connection from="south_in_far" to="south_in" fromLane="2" toLane="2"/>
</connections>
