<?xml version="1.0" encoding="utf-8"?>
<edges>
  <edge id="east_in_far" from="east_end" to="east_mid" numLanes="6" speed="16.67">
    <lane index="0" speed="16.67" width="3.5"/>
    <lane index="1" speed="16.67" width="3.5"/>
    <lane index="2" speed="16.67" width="3.5"/>
    <lane index="3" speed="16.67" width="3.5"/>
    <lane index="4" speed="16.67" width="3.5"/>
    <lane index="5" speed="16.67" width="3.5"/>
  </edge>
  <edge id="east_in" from="east_mid" to="center" numLanes="6" speed="16.67">
    <lane index="0" speed="16.67" width="3.5" changeLeft="emergency" changeRight="emergency"/>
    <lane index="1" speed="16.67" width="3.5" allow="bus" changeLeft="emergency" changeRight="emergency"/>
    <lane index="2" speed="16.67" width="3.5" changeLeft="emergency" changeRight="emergency"/>
    <lane index="3" speed="16.67" width="3.5" changeLeft="emergency" changeRight="emergency"/>
    <lane index="4" speed="16.67" width="3.5" changeLeft="emergency" changeRight="emergency"/>
    <lane index="5" speed="16.67" width="3.5" changeLeft="emergency" changeRight="emergency"/>
  </edge>
  <edge id="west_in_far" from="west_end" to="west_mid" numLanes="5" speed="16.67">
    <lane index="0" speed="16.67" width="3.5"/>
    <lane index="1" speed="16.67" width="3.5"/>
    <lane index="2" speed="16.67" width="3.5"/>
    <lane index="3" speed="16.67" width="3.5"/>
    <lane index="4" speed="16.67" width="3.5"/>
  </edge>
  <edge id="west_in" from="west_mid" to="center" numLanes="5" speed="16.67">
    <lane index="0" speed="16.67" width="3.5" changeLeft="emergency" changeRight="emergency"/>
    <lane index="1" speed="16.67" width="3.5" changeLeft="emergency" changeRight="emergency"/>
    <lane index="2" speed="16.67" width="3.5" changeLeft="emergency" changeRight="emergency"/>
    <lane index="3" speed="16.67" width="3.5" changeLeft="emergency" changeRight="emergency"/>
    <lane index="4" speed="16.67" width="3.5" changeLeft="emergency" changeRight="emergency"/>
  </edge>
  <edge id="north_in_far" from="north_end" to="north_mid" numLanes="3" speed="16.67">
    <lane index="0" speed="16.67" width="3.5"/>
    <lane index="1" speed="16.67" width="3.5"/>
    <lane index="2" speed="16.67" width="3.5"/>
  </edge>
  <edge id="north_in" from="north_mid" to="center" numLanes="3" speed="16.67">
    <lane index="0" speed="16.67" width="3.5" changeLeft="emergency" changeRight="emergency"/>
    <lane index="1" speed="16.67" width="3.5" changeLeft="emergency" changeRight="emergency"/>
    <lane index="2" speed="16.67" width="3.5" changeLeft="emergency" changeRight="emergency"/>
  </edge>
  <edge id="south_in_far" from="south_end" to="south_mid" numLanes="3" speed="16.67">
    <lane index="0" speed="16.67" width="3.5"/>
    <lane index="1" speed="16.67" width="3.5"/>
    <lane index="2" speed="16.67" width="3.5"/>
  </edge>
  <edge id="south_in" from="south_mid" to="center" numLanes="3" speed="16.67">
    <lane index="0" speed="16.67" width="3.5" changeLeft="emergency" changeRight="emergency"/>
    <lane index="1" speed="16.67" width="3.5" changeLeft="emergency" changeRight="emergency"/>
    <lane index="2" speed="16.67" width="3.5" changeLeft="emergency" changeRight="emergency"/>
  </edge>
  <edge id="east_out" from="center" to="east_end" numLanes="4" speed="16.67">
    <lane index="0" speed="16.67" width="3.5"/>
    <lane index="1" speed="16.67" width="3.5"/>
    <lane index="2" speed="16.67" width="3.5"/>
    <lane index="3" speed="16.67" width="3.5"/>
  </edge>
  <edge id="west_out" from="center" to="west_end" numLanes="4" speed="16.67">
    <lane index="0" speed="16.67" width="3.5"/>
    <lane index="1" speed="16.67" width="3.5"/>
    <lane index="2" speed="16.67" width="3.5"/>
    <lane index="3" speed="16.67" width="3.5"/>
  </edge>
  <edge id="north_out" from="center" to="north_end" numLanes="2" speed="16.67">
    <lane index="0" speed="16.67" width="3.5"/>
    <lane index="1" speed="16.67" width="3.5"/>
  </edge>
  <edge id="south_out" from="center" to="south_end" numLanes="2" speed="16.67">
    <lane index="0" speed="16.67" width="3.5"/>
    <lane index="1" speed="16.67" width="3.5"/>
  </edge>
</edges>
