<?xml version="1.0" encoding="utf-8"?>
<nodes>
  <node id="center" x="0" y="0" type="traffic_light"/>
  <node id="east_in_start" x="500" y="0" type="priority"/>
  <node id="west_in_start" x="-500" y="0" type="priority"/>
  <node id="north_in_start" x="0" y="500" type="priority"/>
  <node id="south_in_start" x="0" y="-500" type="priority"/>
  <node id="east_out_end" x="200" y="0" type="priority"/>
  <node id="west_out_end" x="-200" y="0" type="priority"/>
  <node id="north_out_end" x="0" y="200" type="priority"/>
  <node id="south_out_end" x="0" y="-200" type="priority"/>
  <node id="east_mid" x="400" y="0" type="priority"/>
  <node id="west_mid" x="-400" y="0" type="priority"/>
  <node id="north_mid" x="0" y="100.0" type="priority"/>
  <node id="south_mid" x="0" y="-100.0" type="priority"/>
</nodes>
