<?xml version="1.0" ?>
<additional>
  <tlLogic id="center" type="actuated" programID="CAV" offset="0">
    <phase duration="32" state="grrrgGGGrrgrrrgGGGGr" minDur="20" maxDur="60"/>
    <phase duration="3" state="grrrgyyyrrgrrrgyyyyr"/>
    <phase duration="2" state="rrrrrrrrrrrrrrrrrrrr"/>
    <phase duration="35" state="grrrgrrrGGgrrrgrrrrG" minDur="20" maxDur="60"/>
    <phase duration="3" state="grrrgrrryygrrrgrrrry"/>
    <phase duration="2" state="rrrrrrrrrrrrrrrrrrrr"/>
    <phase duration="35" state="gGGrgrrrrrgGGrgrrrrr" minDur="20" maxDur="60"/>
    <phase duration="3" state="gyyrgrrrrrgyyrgrrrrr"/>
    <phase duration="2" state="rrrrrrrrrrrrrrrrrrrr"/>
    <phase duration="35" state="grrGgrrrrrgrrGgrrrrr" minDur="20" maxDur="60"/>
    <phase duration="3" state="grrygrrrrrgrrygrrrrr"/>
    <phase duration="2" state="rrrrrrrrrrrrrrrrrrrr"/>
  </tlLogic>
</additional>
