<?xml version="1.0" ?>
<routes>
  <vType id="private" vClass="private" length="4.5" width="1.8" maxSpeed="50" accel="2.6" decel="4.5" sigma="0.5"/>
  <vType id="truck" vClass="truck" length="7.5" width="2.5" maxSpeed="40" accel="1.8" decel="3.5" sigma="0.6"/>
  <vType id="taxi" vClass="taxi" length="4.5" width="1.8" maxSpeed="50" accel="2.8" decel="4.8" sigma="0.4"/>
  <vType id="bus" vClass="bus" length="12" width="2.5" maxSpeed="40" accel="1.5" decel="3.0" sigma="0.3"/>
  <vTypeDistribution id="mix">
    <vType id="mix_private" vClass="private" length="4.5" width="1.8" maxSpeed="50" accel="2.6" decel="4.5" sigma="0.5" probability="0.85"/>
    <vType id="mix_truck" vClass="truck" length="7.5" width="2.5" maxSpeed="40" accel="1.8" decel="3.5" sigma="0.6" probability="0.1"/>
    <vType id="mix_taxi" vClass="taxi" length="4.5" width="1.8" maxSpeed="50" accel="2.8" decel="4.8" sigma="0.4" probability="0.05"/>
  </vTypeDistribution>
  <route id="r_east_straight" edges="east_in_far east_in west_out"/>
  <route id="r_east_left" edges="east_in_far east_in north_out"/>
  <route id="r_east_right" edges="east_in_far east_in south_out"/>
  <route id="r_west_straight" edges="west_in_far west_in east_out"/>
  <route id="r_west_left" edges="west_in_far west_in south_out"/>
  <route id="r_west_right" edges="west_in_far west_in north_out"/>
  <route id="r_north_straight" edges="north_in_far north_in south_out"/>
  <route id="r_north_left" edges="north_in_far north_in east_out"/>
  <route id="r_north_right" edges="north_in_far north_in west_out"/>
  <route id="r_south_straight" edges="south_in_far south_in north_out"/>
  <route id="r_south_left" edges="south_in_far south_in west_out"/>
  <route id="r_south_right" edges="south_in_far south_in east_out"/>
  <route id="bus_line1_route" edges="east_in_far east_in west_out"/>
  <route id="bus_line2_route" edges="north_in_far north_in south_out"/>
  <flow id="f_0_east_in_far_straight_0" type="mix" begin="0" end="300" route="r_east_straight" vehsPerHour="19.69" departLane="best" departSpeed="random"/>
  <flow id="f_1_east_in_far_left_0" type="mix" begin="0" end="300" route="r_east_left" vehsPerHour="6.5633" departLane="best" departSpeed="random"/>
  <flow id="f_2_east_in_far_right_0" type="mix" begin="0" end="300" route="r_east_right" vehsPerHour="6.5633" departLane="best" departSpeed="random"/>
  <flow id="f_3_west_in_far_straight_0" type="mix" begin="0" end="300" route="r_west_straight" vehsPerHour="13.6736" departLane="best" departSpeed="random"/>
  <flow id="f_4_west_in_far_left_0" type="mix" begin="0" end="300" route="r_west_left" vehsPerHour="8.2042" departLane="best" departSpeed="random"/>
  <flow id="f_5_west_in_far_right_0" type="mix" begin="0" end="300" route="r_west_right" vehsPerHour="5.4695" departLane="best" departSpeed="random"/>
  <flow id="f_6_north_in_far_straight_0" type="mix" begin="0" end="300" route="r_north_straight" vehsPerHour="12.0328" departLane="best" departSpeed="random"/>
  <flow id="f_7_north_in_far_left_0" type="mix" begin="0" end="300" route="r_north_left" vehsPerHour="5.4695" departLane="best" departSpeed="random"/>
  <flow id="f_8_north_in_far_right_0" type="mix" begin="0" end="300" route="r_north_right" vehsPerHour="4.3756" departLane="best" departSpeed="random"/>
  <flow id="f_9_south_in_far_straight_0" type="mix" begin="0" end="300" route="r_south_straight" vehsPerHour="12.3063" departLane="best" departSpeed="random"/>
  <flow id="f_10_south_in_far_left_0" type="mix" begin="0" end="300" route="r_south_left" vehsPerHour="4.9225" departLane="best" departSpeed="random"/>
  <flow id="f_11_south_in_far_right_0" type="mix" begin="0" end="300" route="r_south_right" vehsPerHour="7.3838" departLane="best" departSpeed="random"/>
  <vehicle id="bus_line1_0" type="bus" route="bus_line1_route" depart="60" departSpeed="0">
    <stop busStop="bus_line1_stop_0" duration="30"/>
    <stop busStop="bus_line1_stop_1" duration="30"/>
  </vehicle>
  <vehicle id="bus_line2_0" type="bus" route="bus_line2_route" depart="60" departSpeed="0">
    <stop busStop="bus_line2_stop_0" duration="30"/>
    <stop busStop="bus_line2_stop_1" duration="30"/>
  </vehicle>
  <vehicle id="bus_line1_1" type="bus" route="bus_line1_route" depart="240" departSpeed="0">
    <stop busStop="bus_line1_stop_0" duration="30"/>
    <stop busStop="bus_line1_stop_1" duration="30"/>
  </vehicle>
  <flow id="f_12_east_in_far_straight_300" type="mix" begin="300" end="600" route="r_east_straight" vehsPerHour="68.725" departLane="best" departSpeed="random"/>
  <flow id="f_13_east_in_far_left_300" type="mix" begin="300" end="600" route="r_east_left" vehsPerHour="22.9083" departLane="best" departSpeed="random"/>
  <flow id="f_14_east_in_far_right_300" type="mix" begin="300" end="600" route="r_east_right" vehsPerHour="22.9083" departLane="best" departSpeed="random"/>
  <flow id="f_15_west_in_far_straight_300" type="mix" begin="300" end="600" route="r_west_straight" vehsPerHour="47.7257" departLane="best" departSpeed="random"/>
  <flow id="f_16_west_in_far_left_300" type="mix" begin="300" end="600" route="r_west_left" vehsPerHour="28.6354" departLane="best" departSpeed="random"/>
  <flow id="f_17_west_in_far_right_300" type="mix" begin="300" end="600" route="r_west_right" vehsPerHour="19.0903" departLane="best" departSpeed="random"/>
  <flow id="f_18_north_in_far_straight_300" type="mix" begin="300" end="600" route="r_north_straight" vehsPerHour="41.9986" departLane="best" departSpeed="random"/>
  <flow id="f_19_north_in_far_left_300" type="mix" begin="300" end="600" route="r_north_left" vehsPerHour="19.0903" departLane="best" departSpeed="random"/>
  <flow id="f_20_north_in_far_right_300" type="mix" begin="300" end="600" route="r_north_right" vehsPerHour="15.2722" departLane="best" departSpeed="random"/>
  <flow id="f_21_south_in_far_straight_300" type="mix" begin="300" end="600" route="r_south_straight" vehsPerHour="42.9531" departLane="best" departSpeed="random"/>
  <flow id="f_22_south_in_far_left_300" type="mix" begin="300" end="600" route="r_south_left" vehsPerHour="17.1812" departLane="best" departSpeed="random"/>
  <flow id="f_23_south_in_far_right_300" type="mix" begin="300" end="600" route="r_south_right" vehsPerHour="25.7719" departLane="best" departSpeed="random"/>
  <vehicle id="bus_line2_1" type="bus" route="bus_line2_route" depart="300" departSpeed="0">
    <stop busStop="bus_line2_stop_0" duration="30"/>
    <stop busStop="bus_line2_stop_1" duration="30"/>
  </vehicle>
  <vehicle id="bus_line1_2" type="bus" route="bus_line1_route" depart="420" departSpeed="0">
    <stop busStop="bus_line1_stop_0" duration="30"/>
    <stop busStop="bus_line1_stop_1" duration="30"/>
  </vehicle>
  <vehicle id="bus_line2_2" type="bus" route="bus_line2_route" depart="540" departSpeed="0">
    <stop busStop="bus_line2_stop_0" duration="30"/>
    <stop busStop="bus_line2_stop_1" duration="30"/>
  </vehicle>
  <flow id="f_24_east_in_far_straight_600" type="mix" begin="600" end="900" route="r_east_straight" vehsPerHour="186.8139" departLane="best" departSpeed="random"/>
  <flow id="f_25_east_in_far_left_600" type="mix" begin="600" end="900" route="r_east_left" vehsPerHour="62.2713" departLane="best" departSpeed="random"/>
  <flow id="f_26_east_in_far_right_600" type="mix" begin="600" end="900" route="r_east_right" vehsPerHour="62.2713" departLane="best" departSpeed="random"/>
  <flow id="f_27_west_in_far_straight_600" type="mix" begin="600" end="900" route="r_west_straight" vehsPerHour="129.7319" departLane="best" departSpeed="random"/>
  <flow id="f_28_west_in_far_left_600" type="mix" begin="600" end="900" route="r_west_left" vehsPerHour="77.8391" departLane="best" departSpeed="random"/>
  <flow id="f_29_west_in_far_right_600" type="mix" begin="600" end="900" route="r_west_right" vehsPerHour="51.8927" departLane="best" departSpeed="random"/>
  <flow id="f_30_north_in_far_straight_600" type="mix" begin="600" end="900" route="r_north_straight" vehsPerHour="114.164" departLane="best" departSpeed="random"/>
  <flow id="f_31_north_in_far_left_600" type="mix" begin="600" end="900" route="r_north_left" vehsPerHour="51.8927" departLane="best" departSpeed="random"/>
  <flow id="f_32_north_in_far_right_600" type="mix" begin="600" end="900" route="r_north_right" vehsPerHour="41.5142" departLane="best" departSpeed="random"/>
  <flow id="f_33_south_in_far_straight_600" type="mix" begin="600" end="900" route="r_south_straight" vehsPerHour="116.7587" departLane="best" departSpeed="random"/>
  <flow id="f_34_south_in_far_left_600" type="mix" begin="600" end="900" route="r_south_left" vehsPerHour="46.7035" departLane="best" departSpeed="random"/>
  <flow id="f_35_south_in_far_right_600" type="mix" begin="600" end="900" route="r_south_right" vehsPerHour="70.0552" departLane="best" departSpeed="random"/>
  <vehicle id="bus_line1_3" type="bus" route="bus_line1_route" depart="600" departSpeed="0">
    <stop busStop="bus_line1_stop_0" duration="30"/>
    <stop busStop="bus_line1_stop_1" duration="30"/>
  </vehicle>
  <vehicle id="bus_line1_4" type="bus" route="bus_line1_route" depart="780" departSpeed="0">
    <stop busStop="bus_line1_stop_0" duration="30"/>
    <stop busStop="bus_line1_stop_1" duration="30"/>
  </vehicle>
  <vehicle id="bus_line2_3" type="bus" route="bus_line2_route" depart="780" departSpeed="0">
    <stop busStop="bus_line2_stop_0" duration="30"/>
    <stop busStop="bus_line2_stop_1" duration="30"/>
  </vehicle>
  <flow id="f_36_east_in_far_straight_900" type="mix" begin="900" end="1200" route="r_east_straight" vehsPerHour="395.485" departLane="best" departSpeed="random"/>
  <flow id="f_37_east_in_far_left_900" type="mix" begin="900" end="1200" route="r_east_left" vehsPerHour="131.8283" departLane="best" departSpeed="random"/>
  <flow id="f_38_east_in_far_right_900" type="mix" begin="900" end="1200" route="r_east_right" vehsPerHour="131.8283" departLane="best" departSpeed="random"/>
  <flow id="f_39_west_in_far_straight_900" type="mix" begin="900" end="1200" route="r_west_straight" vehsPerHour="274.6423" departLane="best" departSpeed="random"/>
  <flow id="f_40_west_in_far_left_900" type="mix" begin="900" end="1200" route="r_west_left" vehsPerHour="164.7854" departLane="best" departSpeed="random"/>
  <flow id="f_41_west_in_far_right_900" type="mix" begin="900" end="1200" route="r_west_right" vehsPerHour="109.8569" departLane="best" departSpeed="random"/>
  <flow id="f_42_north_in_far_straight_900" type="mix" begin="900" end="1200" route="r_north_straight" vehsPerHour="241.6853" departLane="best" departSpeed="random"/>
  <flow id="f_43_north_in_far_left_900" type="mix" begin="900" end="1200" route="r_north_left" vehsPerHour="109.8569" departLane="best" departSpeed="random"/>
  <flow id="f_44_north_in_far_right_900" type="mix" begin="900" end="1200" route="r_north_right" vehsPerHour="87.8855" departLane="best" departSpeed="random"/>
  <flow id="f_45_south_in_far_straight_900" type="mix" begin="900" end="1200" route="r_south_straight" vehsPerHour="247.1781" departLane="best" departSpeed="random"/>
  <flow id="f_46_south_in_far_left_900" type="mix" begin="900" end="1200" route="r_south_left" vehsPerHour="98.8712" departLane="best" departSpeed="random"/>
  <flow id="f_47_south_in_far_right_900" type="mix" begin="900" end="1200" route="r_south_right" vehsPerHour="148.3069" departLane="best" departSpeed="random"/>
  <vehicle id="bus_line1_5" type="bus" route="bus_line1_route" depart="960" departSpeed="0">
    <stop busStop="bus_line1_stop_0" duration="30"/>
    <stop busStop="bus_line1_stop_1" duration="30"/>
  </vehicle>
  <vehicle id="bus_line2_4" type="bus" route="bus_line2_route" depart="1020" departSpeed="0">
    <stop busStop="bus_line2_stop_0" duration="30"/>
    <stop busStop="bus_line2_stop_1" duration="30"/>
  </vehicle>
  <vehicle id="bus_line1_6" type="bus" route="bus_line1_route" depart="1140" departSpeed="0">
    <stop busStop="bus_line1_stop_0" duration="30"/>
    <stop busStop="bus_line1_stop_1" duration="30"/>
  </vehicle>
  <flow id="f_48_east_in_far_straight_1200" type="mix" begin="1200" end="1500" route="r_east_straight" vehsPerHour="652.0445" departLane="best" departSpeed="random"/>
  <flow id="f_49_east_in_far_left_1200" type="mix" begin="1200" end="1500" route="r_east_left" vehsPerHour="217.3482" departLane="best" departSpeed="random"/>
  <flow id="f_50_east_in_far_right_1200" type="mix" begin="1200" end="1500" route="r_east_right" vehsPerHour="217.3482" departLane="best" departSpeed="random"/>
  <flow id="f_51_west_in_far_straight_1200" type="mix" begin="1200" end="1500" route="r_west_straight" vehsPerHour="452.8087" departLane="best" departSpeed="random"/>
  <flow id="f_52_west_in_far_left_1200" type="mix" begin="1200" end="1500" route="r_west_left" vehsPerHour="271.6852" departLane="best" departSpeed="random"/>
  <flow id="f_53_west_in_far_right_1200" type="mix" begin="1200" end="1500" route="r_west_right" vehsPerHour="181.1235" departLane="best" departSpeed="random"/>
  <flow id="f_54_north_in_far_straight_1200" type="mix" begin="1200" end="1500" route="r_north_straight" vehsPerHour="398.4716" departLane="best" departSpeed="random"/>
  <flow id="f_55_north_in_far_left_1200" type="mix" begin="1200" end="1500" route="r_north_left" vehsPerHour="181.1235" departLane="best" departSpeed="random"/>
  <flow id="f_56_north_in_far_right_1200" type="mix" begin="1200" end="1500" route="r_north_right" vehsPerHour="144.8988" departLane="best" departSpeed="random"/>
  <flow id="f_57_south_in_far_straight_1200" type="mix" begin="1200" end="1500" route="r_south_straight" vehsPerHour="407.5278" departLane="best" departSpeed="random"/>
  <flow id="f_58_south_in_far_left_1200" type="mix" begin="1200" end="1500" route="r_south_left" vehsPerHour="163.0111" departLane="best" departSpeed="random"/>
  <flow id="f_59_south_in_far_right_1200" type="mix" begin="1200" end="1500" route="r_south_right" vehsPerHour="244.5167" departLane="best" departSpeed="random"/>
  <vehicle id="bus_line2_5" type="bus" route="bus_line2_route" depart="1260" departSpeed="0">
    <stop busStop="bus_line2_stop_0" duration="30"/>
    <stop busStop="bus_line2_stop_1" duration="30"/>
  </vehicle>
  <vehicle id="bus_line1_7" type="bus" route="bus_line1_route" depart="1320" departSpeed="0">
    <stop busStop="bus_line1_stop_0" duration="30"/>
    <stop busStop="bus_line1_stop_1" duration="30"/>
  </vehicle>
  <flow id="f_60_east_in_far_straight_1500" type="mix" begin="1500" end="1800" route="r_east_straight" vehsPerHour="837.2417" departLane="best" departSpeed="random"/>
  <flow id="f_61_east_in_far_left_1500" type="mix" begin="1500" end="1800" route="r_east_left" vehsPerHour="279.0806" departLane="best" departSpeed="random"/>
  <flow id="f_62_east_in_far_right_1500" type="mix" begin="1500" end="1800" route="r_east_right" vehsPerHour="279.0806" departLane="best" departSpeed="random"/>
  <flow id="f_63_west_in_far_straight_1500" type="mix" begin="1500" end="1800" route="r_west_straight" vehsPerHour="581.4178" departLane="best" departSpeed="random"/>
  <flow id="f_64_west_in_far_left_1500" type="mix" begin="1500" end="1800" route="r_west_left" vehsPerHour="348.8507" departLane="best" departSpeed="random"/>
  <flow id="f_65_west_in_far_right_1500" type="mix" begin="1500" end="1800" route="r_west_right" vehsPerHour="232.5671" departLane="best" departSpeed="random"/>
  <flow id="f_66_north_in_far_straight_1500" type="mix" begin="1500" end="1800" route="r_north_straight" vehsPerHour="511.6477" departLane="best" departSpeed="random"/>
  <flow id="f_67_north_in_far_left_1500" type="mix" begin="1500" end="1800" route="r_north_left" vehsPerHour="232.5671" departLane="best" departSpeed="random"/>
  <flow id="f_68_north_in_far_right_1500" type="mix" begin="1500" end="1800" route="r_north_right" vehsPerHour="186.0537" departLane="best" departSpeed="random"/>
  <flow id="f_69_south_in_far_straight_1500" type="mix" begin="1500" end="1800" route="r_south_straight" vehsPerHour="523.276" departLane="best" departSpeed="random"/>
  <flow id="f_70_south_in_far_left_1500" type="mix" begin="1500" end="1800" route="r_south_left" vehsPerHour="209.3104" departLane="best" departSpeed="random"/>
  <flow id="f_71_south_in_far_right_1500" type="mix" begin="1500" end="1800" route="r_south_right" vehsPerHour="313.9656" departLane="best" departSpeed="random"/>
  <vehicle id="bus_line1_8" type="bus" route="bus_line1_route" depart="1500" departSpeed="0">
    <stop busStop="bus_line1_stop_0" duration="30"/>
    <stop busStop="bus_line1_stop_1" duration="30"/>
  </vehicle>
  <vehicle id="bus_line2_6" type="bus" route="bus_line2_route" depart="1500" departSpeed="0">
    <stop busStop="bus_line2_stop_0" duration="30"/>
    <stop busStop="bus_line2_stop_1" duration="30"/>
  </vehicle>
  <vehicle id="bus_line1_9" type="bus" route="bus_line1_route" depart="1680" departSpeed="0">
    <stop busStop="bus_line1_stop_0" duration="30"/>
    <stop busStop="bus_line1_stop_1" duration="30"/>
  </vehicle>
  <vehicle id="bus_line2_7" type="bus" route="bus_line2_route" depart="1740" departSpeed="0">
    <stop busStop="bus_line2_stop_0" duration="30"/>
    <stop busStop="bus_line2_stop_1" duration="30"/>
  </vehicle>
  <flow id="f_72_east_in_far_straight_1800" type="mix" begin="1800" end="2100" route="r_east_straight" vehsPerHour="837.2417" departLane="best" departSpeed="random"/>
  <flow id="f_73_east_in_far_left_1800" type="mix" begin="1800" end="2100" route="r_east_left" vehsPerHour="279.0806" departLane="best" departSpeed="random"/>
  <flow id="f_74_east_in_far_right_1800" type="mix" begin="1800" end="2100" route="r_east_right" vehsPerHour="279.0806" departLane="best" departSpeed="random"/>
  <flow id="f_75_west_in_far_straight_1800" type="mix" begin="1800" end="2100" route="r_west_straight" vehsPerHour="581.4178" departLane="best" departSpeed="random"/>
  <flow id="f_76_west_in_far_left_1800" type="mix" begin="1800" end="2100" route="r_west_left" vehsPerHour="348.8507" departLane="best" departSpeed="random"/>
  <flow id="f_77_west_in_far_right_1800" type="mix" begin="1800" end="2100" route="r_west_right" vehsPerHour="232.5671" departLane="best" departSpeed="random"/>
  <flow id="f_78_north_in_far_straight_1800" type="mix" begin="1800" end="2100" route="r_north_straight" vehsPerHour="511.6477" departLane="best" departSpeed="random"/>
  <flow id="f_79_north_in_far_left_1800" type="mix" begin="1800" end="2100" route="r_north_left" vehsPerHour="232.5671" departLane="best" departSpeed="random"/>
  <flow id="f_80_north_in_far_right_1800" type="mix" begin="1800" end="2100" route="r_north_right" vehsPerHour="186.0537" departLane="best" departSpeed="random"/>
  <flow id="f_81_south_in_far_straight_1800" type="mix" begin="1800" end="2100" route="r_south_straight" vehsPerHour="523.276" departLane="best" departSpeed="random"/>
  <flow id="f_82_south_in_far_left_1800" type="mix" begin="1800" end="2100" route="r_south_left" vehsPerHour="209.3104" departLane="best" departSpeed="random"/>
  <flow id="f_83_south_in_far_right_1800" type="mix" begin="1800" end="2100" route="r_south_right" vehsPerHour="313.9656" departLane="best" departSpeed="random"/>
  <vehicle id="bus_line1_10" type="bus" route="bus_line1_route" depart="1860" departSpeed="0">
    <stop busStop="bus_line1_stop_0" duration="30"/>
    <stop busStop="bus_line1_stop_1" duration="30"/>
  </vehicle>
  <vehicle id="bus_line2_8" type="bus" route="bus_line2_route" depart="1980" departSpeed="0">
    <stop busStop="bus_line2_stop_0" duration="30"/>
    <stop busStop="bus_line2_stop_1" duration="30"/>
  </vehicle>
  <vehicle id="bus_line1_11" type="bus" route="bus_line1_route" depart="2040" departSpeed="0">
    <stop busStop="bus_line1_stop_0" duration="30"/>
    <stop busStop="bus_line1_stop_1" duration="30"/>
  </vehicle>
  <flow id="f_84_east_in_far_straight_2100" type="mix" begin="2100" end="2400" route="r_east_straight" vehsPerHour="652.0445" departLane="best" departSpeed="random"/>
  <flow id="f_85_east_in_far_left_2100" type="mix" begin="2100" end="2400" route="r_east_left" vehsPerHour="217.3482" departLane="best" departSpeed="random"/>
  <flow id="f_86_east_in_far_right_2100" type="mix" begin="2100" end="2400" route="r_east_right" vehsPerHour="217.3482" departLane="best" departSpeed="random"/>
  <flow id="f_87_west_in_far_straight_2100" type="mix" begin="2100" end="2400" route="r_west_straight" vehsPerHour="452.8087" departLane="best" departSpeed="random"/>
  <flow id="f_88_west_in_far_left_2100" type="mix" begin="2100" end="2400" route="r_west_left" vehsPerHour="271.6852" departLane="best" departSpeed="random"/>
  <flow id="f_89_west_in_far_right_2100" type="mix" begin="2100" end="2400" route="r_west_right" vehsPerHour="181.1235" departLane="best" departSpeed="random"/>
  <flow id="f_90_north_in_far_straight_2100" type="mix" begin="2100" end="2400" route="r_north_straight" vehsPerHour="398.4716" departLane="best" departSpeed="random"/>
  <flow id="f_91_north_in_far_left_2100" type="mix" begin="2100" end="2400" route="r_north_left" vehsPerHour="181.1235" departLane="best" departSpeed="random"/>
  <flow id="f_92_north_in_far_right_2100" type="mix" begin="2100" end="2400" route="r_north_right" vehsPerHour="144.8988" departLane="best" departSpeed="random"/>
  <flow id="f_93_south_in_far_straight_2100" type="mix" begin="2100" end="2400" route="r_south_straight" vehsPerHour="407.5278" departLane="best" departSpeed="random"/>
  <flow id="f_94_south_in_far_left_2100" type="mix" begin="2100" end="2400" route="r_south_left" vehsPerHour="163.0111" departLane="best" departSpeed="random"/>
  <flow id="f_95_south_in_far_right_2100" type="mix" begin="2100" end="2400" route="r_south_right" vehsPerHour="244.5167" departLane="best" departSpeed="random"/>
  <vehicle id="bus_line1_12" type="bus" route="bus_line1_route" depart="2220" departSpeed="0">
    <stop busStop="bus_line1_stop_0" duration="30"/>
    <stop busStop="bus_line1_stop_1" duration="30"/>
  </vehicle>
  <vehicle id="bus_line2_9" type="bus" route="bus_line2_route" depart="2220" departSpeed="0">
    <stop busStop="bus_line2_stop_0" duration="30"/>
    <stop busStop="bus_line2_stop_1" duration="30"/>
  </vehicle>
  <flow id="f_96_east_in_far_straight_2400" type="mix" begin="2400" end="2700" route="r_east_straight" vehsPerHour="395.485" departLane="best" departSpeed="random"/>
  <flow id="f_97_east_in_far_left_2400" type="mix" begin="2400" end="2700" route="r_east_left" vehsPerHour="131.8283" departLane="best" departSpeed="random"/>
  <flow id="f_98_east_in_far_right_2400" type="mix" begin="2400" end="2700" route="r_east_right" vehsPerHour="131.8283" departLane="best" departSpeed="random"/>
  <flow id="f_99_west_in_far_straight_2400" type="mix" begin="2400" end="2700" route="r_west_straight" vehsPerHour="274.6423" departLane="best" departSpeed="random"/>
  <flow id="f_100_west_in_far_left_2400" type="mix" begin="2400" end="2700" route="r_west_left" vehsPerHour="164.7854" departLane="best" departSpeed="random"/>
  <flow id="f_101_west_in_far_right_2400" type="mix" begin="2400" end="2700" route="r_west_right" vehsPerHour="109.8569" departLane="best" departSpeed="random"/>
  <flow id="f_102_north_in_far_straight_2400" type="mix" begin="2400" end="2700" route="r_north_straight" vehsPerHour="241.6853" departLane="best" departSpeed="random"/>
  <flow id="f_103_north_in_far_left_2400" type="mix" begin="2400" end="2700" route="r_north_left" vehsPerHour="109.8569" departLane="best" departSpeed="random"/>
  <flow id="f_104_north_in_far_right_2400" type="mix" begin="2400" end="2700" route="r_north_right" vehsPerHour="87.8855" departLane="best" departSpeed="random"/>
  <flow id="f_105_south_in_far_straight_2400" type="mix" begin="2400" end="2700" route="r_south_straight" vehsPerHour="247.1781" departLane="best" departSpeed="random"/>
  <flow id="f_106_south_in_far_left_2400" type="mix" begin="2400" end="2700" route="r_south_left" vehsPerHour="98.8712" departLane="best" departSpeed="random"/>
  <flow id="f_107_south_in_far_right_2400" type="mix" begin="2400" end="2700" route="r_south_right" vehsPerHour="148.3069" departLane="best" departSpeed="random"/>
  <vehicle id="bus_line1_13" type="bus" route="bus_line1_route" depart="2400" departSpeed="0">
    <stop busStop="bus_line1_stop_0" duration="30"/>
    <stop busStop="bus_line1_stop_1" duration="30"/>
  </vehicle>
  <vehicle id="bus_line2_10" type="bus" route="bus_line2_route" depart="2460" departSpeed="0">
    <stop busStop="bus_line2_stop_0" duration="30"/>
    <stop busStop="bus_line2_stop_1" duration="30"/>
  </vehicle>
  <vehicle id="bus_line1_14" type="bus" route="bus_line1_route" depart="2580" departSpeed="0">
    <stop busStop="bus_line1_stop_0" duration="30"/>
    <stop busStop="bus_line1_stop_1" duration="30"/>
  </vehicle>
  <flow id="f_108_east_in_far_straight_2700" type="mix" begin="2700" end="3000" route="r_east_straight" vehsPerHour="186.8139" departLane="best" departSpeed="random"/>
  <flow id="f_109_east_in_far_left_2700" type="mix" begin="2700" end="3000" route="r_east_left" vehsPerHour="62.2713" departLane="best" departSpeed="random"/>
  <flow id="f_110_east_in_far_right_2700" type="mix" begin="2700" end="3000" route="r_east_right" vehsPerHour="62.2713" departLane="best" departSpeed="random"/>
  <flow id="f_111_west_in_far_straight_2700" type="mix" begin="2700" end="3000" route="r_west_straight" vehsPerHour="129.7319" departLane="best" departSpeed="random"/>
  <flow id="f_112_west_in_far_left_2700" type="mix" begin="2700" end="3000" route="r_west_left" vehsPerHour="77.8391" departLane="best" departSpeed="random"/>
  <flow id="f_113_west_in_far_right_2700" type="mix" begin="2700" end="3000" route="r_west_right" vehsPerHour="51.8927" departLane="best" departSpeed="random"/>
  <flow id="f_114_north_in_far_straight_2700" type="mix" begin="2700" end="3000" route="r_north_straight" vehsPerHour="114.164" departLane="best" departSpeed="random"/>
  <flow id="f_115_north_in_far_left_2700" type="mix" begin="2700" end="3000" route="r_north_left" vehsPerHour="51.8927" departLane="best" departSpeed="random"/>
  <flow id="f_116_north_in_far_right_2700" type="mix" begin="2700" end="3000" route="r_north_right" vehsPerHour="41.5142" departLane="best" departSpeed="random"/>
  <flow id="f_117_south_in_far_straight_2700" type="mix" begin="2700" end="3000" route="r_south_straight" vehsPerHour="116.7587" departLane="best" departSpeed="random"/>
  <flow id="f_118_south_in_far_left_2700" type="mix" begin="2700" end="3000" route="r_south_left" vehsPerHour="46.7035" departLane="best" departSpeed="random"/>
  <flow id="f_119_south_in_far_right_2700" type="mix" begin="2700" end="3000" route="r_south_right" vehsPerHour="70.0552" departLane="best" departSpeed="random"/>
  <vehicle id="bus_line2_11" type="bus" route="bus_line2_route" depart="2700" departSpeed="0">
    <stop busStop="bus_line2_stop_0" duration="30"/>
    <stop busStop="bus_line2_stop_1" duration="30"/>
  </vehicle>
  <vehicle id="bus_line1_15" type="bus" route="bus_line1_route" depart="2760" departSpeed="0">
    <stop busStop="bus_line1_stop_0" duration="30"/>
    <stop busStop="bus_line1_stop_1" duration="30"/>
  </vehicle>
  <vehicle id="bus_line1_16" type="bus" route="bus_line1_route" depart="2940" departSpeed="0">
    <stop busStop="bus_line1_stop_0" duration="30"/>
    <stop busStop="bus_line1_stop_1" duration="30"/>
  </vehicle>
  <vehicle id="bus_line2_12" type="bus" route="bus_line2_route" depart="2940" departSpeed="0">
    <stop busStop="bus_line2_stop_0" duration="30"/>
    <stop busStop="bus_line2_stop_1" duration="30"/>
  </vehicle>
  <flow id="f_120_east_in_far_straight_3000" type="mix" begin="3000" end="3300" route="r_east_straight" vehsPerHour="68.725" departLane="best" departSpeed="random"/>
  <flow id="f_121_east_in_far_left_3000" type="mix" begin="3000" end="3300" route="r_east_left" vehsPerHour="22.9083" departLane="best" departSpeed="random"/>
  <flow id="f_122_east_in_far_right_3000" type="mix" begin="3000" end="3300" route="r_east_right" vehsPerHour="22.9083" departLane="best" departSpeed="random"/>
  <flow id="f_123_west_in_far_straight_3000" type="mix" begin="3000" end="3300" route="r_west_straight" vehsPerHour="47.7257" departLane="best" departSpeed="random"/>
  <flow id="f_124_west_in_far_left_3000" type="mix" begin="3000" end="3300" route="r_west_left" vehsPerHour="28.6354" departLane="best" departSpeed="random"/>
  <flow id="f_125_west_in_far_right_3000" type="mix" begin="3000" end="3300" route="r_west_right" vehsPerHour="19.0903" departLane="best" departSpeed="random"/>
  <flow id="f_126_north_in_far_straight_3000" type="mix" begin="3000" end="3300" route="r_north_straight" vehsPerHour="41.9986" departLane="best" departSpeed="random"/>
  <flow id="f_127_north_in_far_left_3000" type="mix" begin="3000" end="3300" route="r_north_left" vehsPerHour="19.0903" departLane="best" departSpeed="random"/>
  <flow id="f_128_north_in_far_right_3000" type="mix" begin="3000" end="3300" route="r_north_right" vehsPerHour="15.2722" departLane="best" departSpeed="random"/>
  <flow id="f_129_south_in_far_straight_3000" type="mix" begin="3000" end="3300" route="r_south_straight" vehsPerHour="42.9531" departLane="best" departSpeed="random"/>
  <flow id="f_130_south_in_far_left_3000" type="mix" begin="3000" end="3300" route="r_south_left" vehsPerHour="17.1812" departLane="best" departSpeed="random"/>
  <flow id="f_131_south_in_far_right_3000" type="mix" begin="3000" end="3300" route="r_south_right" vehsPerHour="25.7719" departLane="best" departSpeed="random"/>
  <vehicle id="bus_line1_17" type="bus" route="bus_line1_route" depart="3120" departSpeed="0">
    <stop busStop="bus_line1_stop_0" duration="30"/>
    <stop busStop="bus_line1_stop_1" duration="30"/>
  </vehicle>
  <vehicle id="bus_line2_13" type="bus" route="bus_line2_route" depart="3180" departSpeed="0">
    <stop busStop="bus_line2_stop_0" duration="30"/>