<?xml version="1.0" ?>
<additional>
  <tlLogic id="center" type="actuated" programID="BUS" offset="0">
    <phase duration="45" state="grrrrgGGGrgrrrrgGGGr" minDur="20" maxDur="60"/>
    <phase duration="3" state="grrrrgyyyrgrrrrgyyyr"/>
    <phase duration="15" state="grrrrgrrrGgrrrrgrrrG" minDur="10" maxDur="30"/>
    <phase duration="3" state="grrrrgrrrygrrrrgrrry"/>
    <phase duration="45" state="gGGGrgrrrrgGGGrgrrrr" minDur="20" maxDur="60"/>
    <phase duration="3" state="gyyyrgrrrrgyyyrgrrrr"/>
    <phase duration="15" state="grrrGgrrrrgrrrGgrrrr" minDur="10" maxDur="30"/>
    <phase duration="3" state="grrrygrrrrgrrrygrrrr"/>
  </tlLogic>
</additional>
