<?xml version="1.0" encoding="UTF-8"?>

<!-- generated on 2025-11-01 15:12:51 by Eclipse SUMO netconvert Version 1.24.0
<netconvertConfiguration xmlns:xsi="http://www.w3.org/2001/XMLSchema-instance" xsi:noNamespaceSchemaLocation="http://sumo.dlr.de/xsd/netconvertConfiguration.xsd">

    <input>
        <node-files value="./test\nodes.nod.xml"/>
        <edge-files value="./test\edges.edg.xml"/>
        <connection-files value="./test\connections.con.xml"/>
    </input>

    <output>
        <output-file value="./test\crossroad.net.xml"/>
    </output>

</netconvertConfiguration>
-->

<net version="1.20" junctionCornerDetail="5" limitTurnSpeed="5.50" xmlns:xsi="http://www.w3.org/2001/XMLSchema-instance" xsi:noNamespaceSchemaLocation="http://sumo.dlr.de/xsd/net_file.xsd">

    <location netOffset="500.00,500.00" convBoundary="0.00,0.00,1000.00,1000.00" origBoundary="-500.00,-500.00,500.00,500.00" projParameter="!"/>

    <edge id=":center_0" function="internal">
        <lane id=":center_0_0" index="0" disallow="bus" speed="8.32" length="15.35" width="3.50" shape="484.25,521.50 483.89,515.92 482.81,511.94 481.02,509.55 478.50,508.75"/>
    </edge>
    <edge id=":center_1" function="internal">
        <lane id=":center_1_0" index="0" allow="bus" speed="16.67" length="43.14" width="3.50" shape="487.75,521.50 491.25,478.50"/>
        <lane id=":center_1_1" index="1" disallow="bus" speed="16.67" length="43.14" width="3.50" shape="491.25,521.50 494.75,478.50"/>
        <lane id=":center_1_2" index="2" disallow="bus" speed="16.67" length="43.14" width="3.50" shape="494.75,521.50 498.25,478.50"/>
    </edge>
    <edge id=":center_4" function="internal">
        <lane id=":center_4_0" index="0" disallow="bus" speed="12.74" length="10.61" width="3.50" shape="498.25,521.50 499.70,511.33 499.87,511.04"/>
    </edge>
    <edge id=":center_20" function="internal">
        <lane id=":center_20_0" index="0" disallow="bus" speed="12.74" length="26.89" width="3.50" shape="499.87,511.04 504.06,504.06 511.33,499.70 521.50,498.25"/>
    </edge>
    <edge id=":center_5" function="internal">
        <lane id=":center_5_0" index="0" disallow="bus" speed="8.32" length="15.35" width="3.50" shape="521.50,515.75 515.92,516.11 511.94,517.19 509.55,518.98 508.75,521.50"/>
    </edge>
    <edge id=":center_6" function="internal">
        <lane id=":center_6_0" index="0" allow="bus" speed="16.67" length="43.14" width="3.50" shape="521.50,512.25 478.50,508.75"/>
        <lane id=":center_6_1" index="1" disallow="bus" speed="16.67" length="43.14" width="3.50" shape="521.50,508.75 478.50,505.25"/>
        <lane id=":center_6_2" index="2" disallow="bus" speed="16.67" length="43.14" width="3.50" shape="521.50,505.25 478.50,501.75"/>
    </edge>
    <edge id=":center_9" function="internal">
        <lane id=":center_9_0" index="0" disallow="bus" speed="12.74" length="10.61" width="3.50" shape="521.50,501.75 511.33,500.30 511.04,500.13"/>
    </edge>
    <edge id=":center_21" function="internal">
        <lane id=":center_21_0" index="0" disallow="bus" speed="12.74" length="26.89" width="3.50" shape="511.04,500.13 504.06,495.94 499.70,488.67 498.25,478.50"/>
    </edge>
    <edge id=":center_10" function="internal">
        <lane id=":center_10_0" index="0" disallow="bus" speed="8.32" length="15.35" width="3.50" shape="515.75,478.50 516.11,484.08 517.19,488.06 518.98,490.45 521.50,491.25"/>
    </edge>
    <edge id=":center_11" function="internal">
        <lane id=":center_11_0" index="0" allow="bus" speed="16.67" length="43.14" width="3.50" shape="512.25,478.50 508.75,521.50"/>
        <lane id=":center_11_1" index="1" disallow="bus" speed="16.67" length="43.14" width="3.50" shape="508.75,478.50 505.25,521.50"/>
        <lane id=":center_11_2" index="2" disallow="bus" speed="16.67" length="43.14" width="3.50" shape="505.25,478.50 501.75,521.50"/>
    </edge>
    <edge id=":center_14" function="internal">
        <lane id=":center_14_0" index="0" disallow="bus" speed="12.74" length="10.61" width="3.50" shape="501.75,478.50 500.30,488.67 500.13,488.96"/>
    </edge>
    <edge id=":center_22" function="internal">
        <lane id=":center_22_0" index="0" disallow="bus" speed="12.74" length="26.89" width="3.50" shape="500.13,488.96 495.94,495.94 488.67,500.30 478.50,501.75"/>
    </edge>
    <edge id=":center_15" function="internal">
        <lane id=":center_15_0" index="0" disallow="bus" speed="8.32" length="15.35" width="3.50" shape="478.50,484.25 484.08,483.89 488.06,482.81 490.45,481.02 491.25,478.50"/>
    </edge>
    <edge id=":center_16" function="internal">
        <lane id=":center_16_0" index="0" allow="bus" speed="16.67" length="43.14" width="3.50" shape="478.50,487.75 521.50,491.25"/>
        <lane id=":center_16_1" index="1" disallow="bus" speed="16.67" length="43.14" width="3.50" shape="478.50,491.25 521.50,494.75"/>
        <lane id=":center_16_2" index="2" disallow="bus" speed="16.67" length="43.14" width="3.50" shape="478.50,494.75 521.50,498.25"/>
    </edge>
    <edge id=":center_19" function="internal">
        <lane id=":center_19_0" index="0" disallow="bus" speed="12.74" length="10.61" width="3.50" shape="478.50,498.25 488.67,499.70 488.96,499.87"/>
    </edge>
    <edge id=":center_23" function="internal">
        <lane id=":center_23_0" index="0" disallow="bus" speed="12.74" length="26.89" width="3.50" shape="488.96,499.87 495.94,504.06 500.30,511.33 501.75,521.50"/>
    </edge>
    <edge id=":east_end_0" function="internal">
        <lane id=":east_end_0_0" index="0" speed="3.82" length="5.11" width="3.50" shape="1000.00,498.25 1001.31,499.12 1001.75,500.00 1001.31,500.88 1000.00,501.75"/>
    </edge>
    <edge id=":east_mid_0" function="internal">
        <lane id=":east_mid_0_0" index="0" disallow="bus" speed="16.67" length="9.46" width="3.50" shape="704.00,512.25 701.52,512.80 700.00,514.00 698.48,515.20 696.00,515.75"/>
        <lane id=":east_mid_0_1" index="1" allow="bus" speed="16.67" length="9.46" width="3.50" shape="704.00,512.25 696.00,512.25"/>
        <lane id=":east_mid_0_2" index="2" allow="bus" speed="16.67" length="9.46" width="3.50" shape="704.00,508.75 701.52,509.30 700.00,510.50 698.48,511.70 696.00,512.25"/>
        <lane id=":east_mid_0_3" index="3" disallow="bus" speed="16.67" length="9.46" width="3.50" shape="704.00,508.75 696.00,508.75"/>
        <lane id=":east_mid_0_4" index="4" allow="bus" speed="16.67" length="9.46" width="3.50" shape="704.00,505.25 701.26,506.34 700.00,508.75 698.74,511.16 696.00,512.25"/>
        <lane id=":east_mid_0_5" index="5" disallow="bus" speed="16.67" length="9.46" width="3.50" shape="704.00,505.25 696.00,505.25"/>
        <lane id=":east_mid_0_6" index="6" allow="bus" speed="16.67" length="9.46" width="3.50" shape="704.00,501.75 700.89,503.39 700.00,507.00 699.11,510.61 696.00,512.25"/>
        <lane id=":east_mid_0_7" index="7" disallow="bus" speed="16.67" length="9.46" width="3.50" shape="704.00,501.75 696.00,501.75"/>
    </edge>
    <edge id=":north_end_0" function="internal">
        <lane id=":north_end_0_0" index="0" speed="3.82" length="5.11" width="3.50" shape="501.75,1000.00 500.88,1001.31 500.00,1001.75 499.12,1001.31 498.25,1000.00"/>
    </edge>
    <edge id=":north_mid_0" function="internal">
        <lane id=":north_mid_0_0" index="0" disallow="bus" speed="16.67" length="9.46" width="3.50" shape="487.75,704.00 487.20,701.52 486.00,700.00 484.80,698.48 484.25,696.00"/>
        <lane id=":north_mid_0_1" index="1" allow="bus" speed="16.67" length="9.46" width="3.50" shape="487.75,704.00 487.75,696.00"/>
        <lane id=":north_mid_0_2" index="2" allow="bus" speed="16.67" length="9.46" width="3.50" shape="491.25,704.00 490.70,701.52 489.50,700.00 488.30,698.48 487.75,696.00"/>
        <lane id=":north_mid_0_3" index="3" disallow="bus" speed="16.67" length="9.46" width="3.50" shape="491.25,704.00 491.25,696.00"/>
        <lane id=":north_mid_0_4" index="4" allow="bus" speed="16.67" length="9.46" width="3.50" shape="494.75,704.00 493.66,701.26 491.25,700.00 488.84,698.74 487.75,696.00"/>
        <lane id=":north_mid_0_5" index="5" disallow="bus" speed="16.67" length="9.46" width="3.50" shape="494.75,704.00 494.75,696.00"/>
        <lane id=":north_mid_0_6" index="6" allow="bus" speed="16.67" length="9.46" width="3.50" shape="498.25,704.00 496.61,700.89 493.00,700.00 489.39,699.11 487.75,696.00"/>
        <lane id=":north_mid_0_7" index="7" disallow="bus" speed="16.67" length="9.46" width="3.50" shape="498.25,704.00 498.25,696.00"/>
    </edge>
    <edge id=":south_end_0" function="internal">
        <lane id=":south_end_0_0" index="0" speed="3.82" length="5.11" width="3.50" shape="498.25,0.00 499.12,-1.31 500.00,-1.75 500.88,-1.31 501.75,0.00"/>
    </edge>
    <edge id=":south_mid_0" function="internal">
        <lane id=":south_mid_0_0" index="0" disallow="bus" speed="16.67" length="9.46" width="3.50" shape="512.25,296.00 512.80,298.48 514.00,300.00 515.20,301.52 515.75,304.00"/>
        <lane id=":south_mid_0_1" index="1" allow="bus" speed="16.67" length="9.46" width="3.50" shape="512.25,296.00 512.25,304.00"/>
        <lane id=":south_mid_0_2" index="2" allow="bus" speed="16.67" length="9.46" width="3.50" shape="508.75,296.00 509.30,298.48 510.50,300.00 511.70,301.52 512.25,304.00"/>
        <lane id=":south_mid_0_3" index="3" disallow="bus" speed="16.67" length="9.46" width="3.50" shape="508.75,296.00 508.75,304.00"/>
        <lane id=":south_mid_0_4" index="4" allow="bus" speed="16.67" length="9.46" width="3.50" shape="505.25,296.00 506.34,298.74 508.75,300.00 511.16,301.26 512.25,304.00"/>
        <lane id=":south_mid_0_5" index="5" disallow="bus" speed="16.67" length="9.46" width="3.50" shape="505.25,296.00 505.25,304.00"/>
        <lane id=":south_mid_0_6" index="6" allow="bus" speed="16.67" length="9.46" width="3.50" shape="501.75,296.00 503.39,299.11 507.00,300.00 510.61,300.89 512.25,304.00"/>
        <lane id=":south_mid_0_7" index="7" disallow="bus" speed="16.67" length="9.46" width="3.50" shape="501.75,296.00 501.75,304.00"/>
    </edge>
    <edge id=":west_end_0" function="internal">
        <lane id=":west_end_0_0" index="0" speed="3.82" length="5.11" width="3.50" shape="0.00,501.75 -1.31,500.88 -1.75,500.00 -1.31,499.12 0.00,498.25"/>
    </edge>
    <edge id=":west_mid_0" function="internal">
        <lane id=":west_mid_0_0" index="0" disallow="bus" speed="16.67" length="9.46" width="3.50" shape="296.00,487.75 298.48,487.20 300.00,486.00 301.52,484.80 304.00,484.25"/>
        <lane id=":west_mid_0_1" index="1" allow="bus" speed="16.67" length="9.46" width="3.50" shape="296.00,487.75 304.00,487.75"/>
        <lane id=":west_mid_0_2" index="2" allow="bus" speed="16.67" length="9.46" width="3.50" shape="296.00,491.25 298.48,490.70 300.00,489.50 301.52,488.30 304.00,487.75"/>
        <lane id=":west_mid_0_3" index="3" disallow="bus" speed="16.67" length="9.46" width="3.50" shape="296.00,491.25 304.00,491.25"/>
        <lane id=":west_mid_0_4" index="4" allow="bus" speed="16.67" length="9.46" width="3.50" shape="296.00,494.75 298.74,493.66 300.00,491.25 301.26,488.84 304.00,487.75"/>
        <lane id=":west_mid_0_5" index="5" disallow="bus" speed="16.67" length="9.46" width="3.50" shape="296.00,494.75 304.00,494.75"/>
        <lane id=":west_mid_0_6" index="6" allow="bus" speed="16.67" length="9.46" width="3.50" shape="296.00,498.25 299.11,496.61 300.00,493.00 300.89,489.39 304.00,487.75"/>
        <lane id=":west_mid_0_7" index="7" disallow="bus" speed="16.67" length="9.46" width="3.50" shape="296.00,498.25 304.00,498.25"/>
    </edge>

    <edge id="east_in" from="east_mid" to="center" priority="-1">
        <lane id="east_in_0" index="0" disallow="bus" speed="16.67" length="174.50" width="3.50" shape="696.00,515.75 521.50,515.75" changeLeft="emergency" changeRight="emergency"/>
        <lane id="east_in_1" index="1" allow="bus" speed="16.67" length="174.50" width="3.50" shape="696.00,512.25 521.50,512.25" changeLeft="emergency" changeRight="emergency"/>
        <lane id="east_in_2" index="2" disallow="bus" speed="16.67" length="174.50" width="3.50" shape="696.00,508.75 521.50,508.75" changeLeft="emergency" changeRight="emergency"/>
        <lane id="east_in_3" index="3" disallow="bus" speed="16.67" length="174.50" width="3.50" shape="696.00,505.25 521.50,505.25" changeLeft="emergency" changeRight="emergency"/>
        <lane id="east_in_4" index="4" disallow="bus" speed="16.67" length="174.50" width="3.50" shape="696.00,501.75 521.50,501.75" changeLeft="emergency" changeRight="emergency"/>
    </edge>
    <edge id="east_in_far" from="east_end" to="east_mid" priority="-1">
        <lane id="east_in_far_0" index="0" speed="16.67" length="296.00" width="3.50" shape="1000.00,512.25 704.00,512.25"/>
        <lane id="east_in_far_1" index="1" speed="16.67" length="296.00" width="3.50" shape="1000.00,508.75 704.00,508.75"/>
        <lane id="east_in_far_2" index="2" speed="16.67" length="296.00" width="3.50" shape="1000.00,505.25 704.00,505.25"/>
        <lane id="east_in_far_3" index="3" speed="16.67" length="296.00" width="3.50" shape="1000.00,501.75 704.00,501.75"/>
    </edge>
    <edge id="east_out" from="center" to="east_end" priority="-1">
        <lane id="east_out_0" index="0" speed="16.67" length="478.50" width="3.50" shape="521.50,491.25 1000.00,491.25"/>
        <lane id="east_out_1" index="1" speed="16.67" length="478.50" width="3.50" shape="521.50,494.75 1000.00,494.75"/>
        <lane id="east_out_2" index="2" speed="16.67" length="478.50" width="3.50" shape="521.50,498.25 1000.00,498.25"/>
    </edge>
    <edge id="north_in" from="north_mid" to="center" priority="-1">
        <lane id="north_in_0" index="0" disallow="bus" speed="16.67" length="174.50" width="3.50" shape="484.25,696.00 484.25,521.50" changeLeft="emergency" changeRight="emergency"/>
        <lane id="north_in_1" index="1" allow="bus" speed="16.67" length="174.50" width="3.50" shape="487.75,696.00 487.75,521.50" changeLeft="emergency" changeRight="emergency"/>
        <lane id="north_in_2" index="2" disallow="bus" speed="16.67" length="174.50" width="3.50" shape="491.25,696.00 491.25,521.50" changeLeft="emergency" changeRight="emergency"/>
        <lane id="north_in_3" index="3" disallow="bus" speed="16.67" length="174.50" width="3.50" shape="494.75,696.00 494.75,521.50" changeLeft="emergency" changeRight="emergency"/>
        <lane id="north_in_4" index="4" disallow="bus" speed="16.67" length="174.50" width="3.50" shape="498.25,696.00 498.25,521.50" changeLeft="emergency" changeRight="emergency"/>
    </edge>
    <edge id="north_in_far" from="north_end" to="north_mid" priority="-1">
        <lane id="north_in_far_0" index="0" speed="16.67" length="296.00" width="3.50" shape="487.75,1000.00 487.75,704.00"/>
        <lane id="north_in_far_1" index="1" speed="16.67" length="296.00" width="3.50" shape="491.25,1000.00 491.25,704.00"/>
        <lane id="north_in_far_2" index="2" speed="16.67" length="296.00" width="3.50" shape="494.75,1000.00 494.75,704.00"/>
        <lane id="north_in_far_3" index="3" speed="16.67" length="296.00" width="3.50" shape="498.25,1000.00 498.25,704.00"/>
    </edge>
    <edge id="north_out" from="center" to="north_end" priority="-1">
        <lane id="north_out_0" index="0" speed="16.67" length="478.50" width="3.50" shape="508.75,521.50 508.75,1000.00"/>
        <lane id="north_out_1" index="1" speed="16.67" length="478.50" width="3.50" shape="505.25,521.50 505.25,1000.00"/>
        <lane id="north_out_2" index="2" speed="16.67" length="478.50" width="3.50" shape="501.75,521.50 501.75,1000.00"/>
    </edge>
    <edge id="south_in" from="south_mid" to="center" priority="-1">
        <lane id="south_in_0" index="0" disallow="bus" speed="16.67" length="174.50" width="3.50" shape="515.75,304.00 515.75,478.50" changeLeft="emergency" changeRight="emergency"/>
        <lane id="south_in_1" index="1" allow="bus" speed="16.67" length="174.50" width="3.50" shape="512.25,304.00 512.25,478.50" changeLeft="emergency" changeRight="emergency"/>
        <lane id="south_in_2" index="2" disallow="bus" speed="16.67" length="174.50" width="3.50" shape="508.75,304.00 508.75,478.50" changeLeft="emergency" changeRight="emergency"/>
        <lane id="south_in_3" index="3" disallow="bus" speed="16.67" length="174.50" width="3.50" shape="505.25,304.00 505.25,478.50" changeLeft="emergency" changeRight="emergency"/>
        <lane id="south_in_4" index="4" disallow="bus" speed="16.67" length="174.50" width="3.50" shape="501.75,304.00 501.75,478.50" changeLeft="emergency" changeRight="emergency"/>
    </edge>
    <edge id="south_in_far" from="south_end" to="south_mid" priority="-1">
        <lane id="south_in_far_0" index="0" speed="16.67" length="296.00" width="3.50" shape="512.25,0.00 512.25,296.00"/>
        <lane id="south_in_far_1" index="1" speed="16.67" length="296.00" width="3.50" shape="508.75,0.00 508.75,296.00"/>
        <lane id="south_in_far_2" index="2" speed="16.67" length="296.00" width="3.50" shape="505.25,0.00 505.25,296.00"/>
        <lane id="south_in_far_3" index="3" speed="16.67" length="296.00" width="3.50" shape="501.75,0.00 501.75,296.00"/>
    </edge>
    <edge id="south_out" from="center" to="south_end" priority="-1">
        <lane id="south_out_0" index="0" speed="16.67" length="478.50" width="3.50" shape="491.25,478.50 491.25,0.00"/>
        <lane id="south_out_1" index="1" speed="16.67" length="478.50" width="3.50" shape="494.75,478.50 494.75,0.00"/>
        <lane id="south_out_2" index="2" speed="16.67" length="478.50" width="3.50" shape="498.25,478.50 498.25,0.00"/>
    </edge>
    <edge id="west_in" from="west_mid" to="center" priority="-1">
        <lane id="west_in_0" index="0" disallow="bus" speed="16.67" length="174.50" width="3.50" shape="304.00,484.25 478.50,484.25" changeLeft="emergency" changeRight="emergency"/>
        <lane id="west_in_1" index="1" allow="bus" speed="16.67" length="174.50" width="3.50" shape="304.00,487.75 478.50,487.75" changeLeft="emergency" changeRight="emergency"/>
        <lane id="west_in_2" index="2" disallow="bus" speed="16.67" length="174.50" width="3.50" shape="304.00,491.25 478.50,491.25" changeLeft="emergency" changeRight="emergency"/>
        <lane id="west_in_3" index="3" disallow="bus" speed="16.67" length="174.50" width="3.50" shape="304.00,494.75 478.50,494.75" changeLeft="emergency" changeRight="emergency"/>
        <lane id="west_in_4" index="4" disallow="bus" speed="16.67" length="174.50" width="3.50" shape="304.00,498.25 478.50,498.25" changeLeft="emergency" changeRight="emergency"/>
    </edge>
    <edge id="west_in_far" from="west_end" to="west_mid" priority="-1">
        <lane id="west_in_far_0" index="0" speed="16.67" length="296.00" width="3.50" shape="0.00,487.75 296.00,487.75"/>
        <lane id="west_in_far_1" index="1" speed="16.67" length="296.00" width="3.50" shape="0.00,491.25 296.00,491.25"/>
        <lane id="west_in_far_2" index="2" speed="16.67" length="296.00" width="3.50" shape="0.00,494.75 296.00,494.75"/>
        <lane id="west_in_far_3" index="3" speed="16.67" length="296.00" width="3.50" shape="0.00,498.25 296.00,498.25"/>
    </edge>
    <edge id="west_out" from="center" to="west_end" priority="-1">
        <lane id="west_out_0" index="0" speed="16.67" length="478.50" width="3.50" shape="478.50,508.75 0.00,508.75"/>
        <lane id="west_out_1" index="1" speed="16.67" length="478.50" width="3.50" shape="478.50,505.25 0.00,505.25"/>
        <lane id="west_out_2" index="2" speed="16.67" length="478.50" width="3.50" shape="478.50,501.75 0.00,501.75"/>
    </edge>

    <tlLogic id="center" type="static" programID="0" offset="0">
        <phase duration="31" state="GGGGgrrrrrGGGGgrrrrr"/>
        <phase duration="4"  state="yyyygrrrrryyyygrrrrr"/>
        <phase duration="6"  state="rrrrGrrrrrrrrrGrrrrr"/>
        <phase duration="4"  state="rrrryrrrrrrrrryrrrrr"/>
        <phase duration="31" state="rrrrrGGGGgrrrrrGGGGg"/>
        <phase duration="4"  state="rrrrryyyygrrrrryyyyg"/>
        <phase duration="6"  state="rrrrrrrrrGrrrrrrrrrG"/>
        <phase duration="4"  state="rrrrrrrrryrrrrrrrrry"/>
    </tlLogic>

    <junction id="center" type="traffic_light" x="500.00" y="500.00" incLanes="north_in_0 north_in_1 north_in_2 north_in_3 north_in_4 east_in_0 east_in_1 east_in_2 east_in_3 east_in_4 south_in_0 south_in_1 south_in_2 south_in_3 south_in_4 west_in_0 west_in_1 west_in_2 west_in_3 west_in_4" intLanes=":center_0_0 :center_1_0 :center_1_1 :center_1_2 :center_20_0 :center_5_0 :center_6_0 :center_6_1 :center_6_2 :center_21_0 :center_10_0 :center_11_0 :center_11_1 :center_11_2 :center_22_0 :center_15_0 :center_16_0 :center_16_1 :center_16_2 :center_23_0" shape="482.50,521.50 510.50,521.50 511.72,519.28 513.25,518.50 515.39,517.94 518.14,517.61 521.50,517.50 521.50,489.50 519.28,488.28 518.50,486.75 517.94,484.61 517.61,481.86 517.50,478.50 489.50,478.50 488.28,480.72 486.75,481.50 484.61,482.06 481.86,482.39 478.50,482.50 478.50,510.50 480.72,511.72 481.50,513.25 482.06,515.39 482.39,518.14">
        <request index="0"  response="00000000000000000000" foes="00000000000111000000" cont="0"/>
        <request index="1"  response="10000000001000000000" foes="11111100001111000000" cont="0"/>
        <request index="2"  response="10000000001000000000" foes="11111100001111000000" cont="0"/>
        <request index="3"  response="10000000001000000000" foes="11111100001111000000" cont="0"/>
        <request index="4"  response="10000011101000000000" foes="11110011101111000000" cont="1"/>
        <request index="5"  response="00000011100000000000" foes="00000011100000000000" cont="0"/>
        <request index="6"  response="00000111100000011111" foes="10000111100000011111" cont="0"/>
        <request index="7"  response="00000111100000011111" foes="10000111100000011111" cont="0"/>
        <request index="8"  response="00000111100000011111" foes="10000111100000011111" cont="0"/>
        <request index="9"  response="01110111100000011110" foes="01110111100000011110" cont="1"/>
        <request index="10" response="00000000000000000000" foes="01110000000000000000" cont="0"/>
        <request index="11" response="10000000001000000000" foes="11110000001111110000" cont="0"/>
        <request index="12" response="10000000001000000000" foes="11110000001111110000" cont="0"/>
        <request index="13" response="10000000001000000000" foes="11110000001111110000" cont="0"/>
        <request index="14" response="10000000001000001110" foes="11110000001111001110" cont="1"/>
        <request index="15" response="00000000000000001110" foes="00000000000000001110" cont="0"/>
        <request index="16" response="00000111110000011110" foes="00000111111000011110" cont="0"/>
        <request index="17" response="00000111110000011110" foes="00000111111000011110" cont="0"/>
        <request index="18" response="00000111110000011110" foes="00000111111000011110" cont="0"/>
        <request index="19" response="00000111100111011110" foes="00000111100111011110" cont="1"/>
    </junction>
    <junction id="east_end" type="priority" x="1000.00" y="500.00" incLanes="east_out_0 east_out_1 east_out_2" intLanes=":east_end_0_0" shape="1000.00,500.00 1000.00,489.50 1000.00,500.00">
        <request index="0" response="0" foes="0" cont="0"/>
    </junction>
    <junction id="east_mid" type="priority" x="700.00" y="500.00" incLanes="east_in_far_0 east_in_far_1 east_in_far_2 east_in_far_3" intLanes=":east_mid_0_0 :east_mid_0_1 :east_mid_0_2 :east_mid_0_3 :east_mid_0_4 :east_mid_0_5 :east_mid_0_6 :east_mid_0_7" shape="704.00,514.00 704.00,500.00 696.00,500.00 696.00,517.50 699.04,516.59 700.96,514.91 702.19,514.26">
        <request index="0" response="00000000" foes="00000000" cont="0"/>
        <request index="1" response="01010100" foes="01010100" cont="0"/>
        <request index="2" response="01010000" foes="01010010" cont="0"/>
        <request index="3" response="01010000" foes="01010000" cont="0"/>
        <request index="4" response="01000000" foes="01001110" cont="0"/>
        <request index="5" response="01000000" foes="01000000" cont="0"/>
        <request index="6" response="00000000" foes="00111110" cont="0"/>
        <request index="7" response="00000000" foes="00000000" cont="0"/>
    </junction>
    <junction id="north_end" type="priority" x="500.00" y="1000.00" incLanes="north_out_0 north_out_1 north_out_2" intLanes=":north_end_0_0" shape="500.00,1000.00 510.50,1000.00 500.00,1000.00">
        <request index="0" response="0" foes="0" cont="0"/>
    </junction>
    <junction id="north_mid" type="priority" x="500.00" y="700.00" incLanes="north_in_far_0 north_in_far_1 north_in_far_2 north_in_far_3" intLanes=":north_mid_0_0 :north_mid_0_1 :north_mid_0_2 :north_mid_0_3 :north_mid_0_4 :north_mid_0_5 :north_mid_0_6 :north_mid_0_7" shape="486.00,704.00 500.00,704.00 500.00,696.00 482.50,696.00 483.41,699.04 485.09,700.96 485.74,702.19">
        <request index="0" response="00000000" foes="00000000" cont="0"/>
        <request index="1" response="01010100" foes="01010100" cont="0"/>
        <request index="2" response="01010000" foes="01010010" cont="0"/>
        <request index="3" response="01010000" foes="01010000" cont="0"/>
        <request index="4" response="01000000" foes="01001110" cont="0"/>
        <request index="5" response="01000000" foes="01000000" cont="0"/>
        <request index="6" response="00000000" foes="00111110" cont="0"/>
        <request index="7" response="00000000" foes="00000000" cont="0"/>
    </junction>
    <junction id="south_end" type="priority" x="500.00" y="0.00" incLanes="south_out_0 south_out_1 south_out_2" intLanes=":south_end_0_0" shape="500.00,0.00 489.50,0.00 500.00,0.00">
        <request index="0" response="0" foes="0" cont="0"/>
    </junction>
    <junction id="south_mid" type="priority" x="500.00" y="300.00" incLanes="south_in_far_0 south_in_far_1 south_in_far_2 south_in_far_3" intLanes=":south_mid_0_0 :south_mid_0_1 :south_mid_0_2 :south_mid_0_3 :south_mid_0_4 :south_mid_0_5 :south_mid_0_6 :south_mid_0_7" shape="500.00,304.00 517.50,304.00 516.59,300.96 514.91,299.04 514.26,297.81 514.00,296.00 500.00,296.00">
        <request index="0" response="00000000" foes="00000000" cont="0"/>
        <request index="1" response="01010100" foes="01010100" cont="0"/>
        <request index="2" response="01010000" foes="01010010" cont="0"/>
        <request index="3" response="01010000" foes="01010000" cont="0"/>
        <request index="4" response="01000000" foes="01001110" cont="0"/>
        <request index="5" response="01000000" foes="01000000" cont="0"/>
        <request index="6" response="00000000" foes="00111110" cont="0"/>
        <request index="7" response="00000000" foes="00000000" cont="0"/>
    </junction>
    <junction id="west_end" type="priority" x="0.00" y="500.00" incLanes="west_out_0 west_out_1 west_out_2" intLanes=":west_end_0_0" shape="0.00,500.00 0.00,510.50 0.00,500.00">
        <request index="0" response="0" foes="0" cont="0"/>
    </junction>
    <junction id="west_mid" type="priority" x="300.00" y="500.00" incLanes="west_in_far_0 west_in_far_1 west_in_far_2 west_in_far_3" intLanes=":west_mid_0_0 :west_mid_0_1 :west_mid_0_2 :west_mid_0_3 :west_mid_0_4 :west_mid_0_5 :west_mid_0_6 :west_mid_0_7" shape="304.00,500.00 304.00,482.50 300.96,483.41 299.04,485.09 297.81,485.74 296.00,486.00 296.00,500.00">
        <request index="0" response="00000000" foes="00000000" cont="0"/>
        <request index="1" response="01010100" foes="01010100" cont="0"/>
        <request index="2" response="01010000" foes="01010010" cont="0"/>
        <request index="3" response="01010000" foes="01010000" cont="0"/>
        <request index="4" response="01000000" foes="01001110" cont="0"/>
        <request index="5" response="01000000" foes="01000000" cont="0"/>
        <request index="6" response="00000000" foes="00111110" cont="0"/>
        <request index="7" response="00000000" foes="00000000" cont="0"/>
    </junction>

    <junction id=":center_20_0" type="internal" x="499.87" y="511.04" incLanes=":center_4_0 south_in_0 south_in_1 south_in_2 south_in_3" intLanes=":center_6_0 :center_6_1 :center_6_2 :center_9_0 :center_10_0 :center_11_0 :center_11_1 :center_11_2 :center_16_0 :center_16_1 :center_16_2 :center_19_0"/>
    <junction id=":center_21_0" type="internal" x="511.04" y="500.13" incLanes=":center_9_0 west_in_0 west_in_1 west_in_2 west_in_3" intLanes=":center_1_0 :center_1_1 :center_1_2 :center_4_0 :center_11_0 :center_11_1 :center_11_2 :center_14_0 :center_15_0 :center_16_0 :center_16_1 :center_16_2"/>
    <junction id=":center_22_0" type="internal" x="500.13" y="488.96" incLanes=":center_14_0 north_in_0 north_in_1 north_in_2 north_in_3" intLanes=":center_0_0 :center_1_0 :center_1_1 :center_1_2 :center_6_0 :center_6_1 :center_6_2 :center_9_0 :center_16_0 :center_16_1 :center_16_2 :center_19_0"/>
    <junction id=":center_23_0" type="internal" x="488.96" y="499.87" incLanes=":center_19_0 east_in_0 east_in_1 east_in_2 east_in_3" intLanes=":center_1_0 :center_1_1 :center_1_2 :center_4_0 :center_5_0 :center_6_0 :center_6_1 :center_6_2 :center_11_0 :center_11_1 :center_11_2 :center_14_0"/>

    <connection from="east_in" to="north_out" fromLane="0" toLane="0" via=":center_5_0" tl="center" linkIndex="5" dir="r" state="o"/>
    <connection from="east_in" to="west_out" fromLane="1" toLane="0" allow="bus" via=":center_6_0" tl="center" linkIndex="6" dir="s" state="o"/>
    <connection from="east_in" to="west_out" fromLane="2" toLane="1" via=":center_6_1" tl="center" linkIndex="7" dir="s" state="o"/>
    <connection from="east_in" to="west_out" fromLane="3" toLane="2" via=":center_6_2" tl="center" linkIndex="8" dir="s" state="o"/>
    <connection from="east_in" to="south_out" fromLane="4" toLane="2" via=":center_9_0" tl="center" linkIndex="9" dir="l" state="o"/>